@<TRIPOS>MOLECULE
CB7
  126   147     1     0     0
SMALL
No Charge or Current Charge


@<TRIPOS>ATOM
      1 O1          -1.9180    -3.5360     3.0630 o          1 CB7      -0.581500
      2 C1          -2.1950    -4.0050     2.0050 c          1 CB7       0.802500
      3 N1          -3.3580    -3.7950     1.3030 n          1 CB7      -0.492371
      4 C2          -4.4580    -3.0740     1.8830 c3         1 CB7       0.283257
      5 H1          -4.2010    -2.8570     2.9060 h2         1 CB7       0.084986
      6 H2          -5.3400    -3.7110     1.8590 h2         1 CB7       0.084986
      7 N2          -4.7670    -1.8230     1.2440 n          1 CB7      -0.492371
      8 C3          -4.7320    -0.6450     1.9520 c          1 CB7       0.802500
      9 O2          -4.3170    -0.5000     3.0580 o          1 CB7      -0.581500
     10 N3          -5.3310     0.3210     1.1800 n          1 CB7      -0.492371
     11 C4          -5.5390     1.6600     1.6600 c3         1 CB7       0.283257
     12 H3          -5.3990     1.6470     2.7270 h2         1 CB7       0.084986
     13 H4          -6.5620     1.9470     1.4320 h2         1 CB7       0.084986
     14 N4          -4.6510     2.6550     1.1240 n          1 CB7      -0.492371
     15 C5          -3.7140     3.2850     1.9080 c          1 CB7       0.802500
     16 O3          -3.4960     3.0640     3.0570 o          1 CB7      -0.581500
     17 N5          -3.1280     4.2650     1.1440 n          1 CB7      -0.492371
     18 C6          -2.2350     5.2320     1.7240 c3         1 CB7       0.283257
     19 H5          -2.6320     6.2290     1.5470 h2         1 CB7       0.084986
     20 H6          -2.2020     5.0410     2.7830 h2         1 CB7       0.084986
     21 N6          -0.8850     5.1940     1.2340 n          1 CB7      -0.492371
     22 C7           0.1440     4.6710     1.9780 c          1 CB7       0.802500
     23 O4           0.0490     4.1830     3.0590 o          1 CB7      -0.581500
     24 N7           1.3100     4.8800     1.2790 n          1 CB7      -0.492371
     25 C8           2.5890     4.6920     1.9100 c3         1 CB7       0.283257
     26 H7           2.4050     4.3780     2.9240 h2         1 CB7       0.084986
     27 H8           3.1210     5.6420     1.9160 h2         1 CB7       0.084986
     28 N8           3.4260     3.6980     1.2950 n          1 CB7      -0.492371
     29 C9           3.8260     2.5820     1.9930 c          1 CB7       0.802500
     30 O5           3.4280     2.2410     3.0610 o          1 CB7      -0.581500
     31 N9           4.8200     1.9730     1.2680 n          1 CB7      -0.492371
     32 C10          5.5450     0.8420     1.7760 c3         1 CB7       0.283257
     33 H9           5.3230     0.7580     2.8260 h2         1 CB7       0.084986
     34 H10          6.6090     1.0320     1.6450 h2         1 CB7       0.084986
     35 N10          5.2180    -0.4200     1.1690 n          1 CB7      -0.492371
     36 C11          4.7060    -1.4550     1.9150 c          1 CB7       0.802500
     37 O6           4.3740    -1.4030     3.0570 o          1 CB7      -0.581500
     38 N11          4.7160    -2.5790     1.1250 n          1 CB7      -0.492371
     39 C12          4.3400    -3.8700     1.6350 c3         1 CB7       0.283257
     40 H11          5.1250    -4.5810     1.3890 h2         1 CB7       0.084986
     41 H12          4.2590    -3.7800     2.7050 h2         1 CB7       0.084986
     42 N12          3.0910    -4.3890     1.1500 n          1 CB7      -0.492371
     43 C13          1.9640    -4.4300     1.9350 c          1 CB7       0.802500
     44 O7           1.8790    -4.0450     3.0580 o          1 CB7      -0.581500
     45 N13          0.9790    -5.0610     1.2130 n          1 CB7      -0.492371
     46 C14         -0.2430    -5.4830     1.8470 c3         1 CB7       0.283257
     47 H13         -0.3180    -6.5670     1.7820 h2         1 CB7       0.084986
     48 H14         -0.1850    -5.1880     2.8810 h2         1 CB7       0.084986
     49 N14         -1.4410    -4.9110     1.2980 n          1 CB7      -0.492371
     50 C15         -2.1200    -5.4110     0.1390 c3         1 CB7       0.232814
     51 H15         -2.2330    -6.4890     0.2130 h2         1 CB7       0.076986
     52 N15         -1.5670    -5.0640    -1.1390 n          1 CB7      -0.492371
     53 C16         -2.4340    -4.3240    -1.9070 c          1 CB7       0.802500
     54 O8          -2.2960    -4.0490    -3.0570 o          1 CB7      -0.581500
     55 N16         -3.5230    -4.0230    -1.1260 n          1 CB7      -0.492371
     56 C17         -3.4740    -4.6550     0.1600 c3         1 CB7       0.232814
     57 H16         -4.3290    -5.3160     0.2800 h2         1 CB7       0.076986
     58 C18         -4.6840    -3.3710    -1.6680 c3         1 CB7       0.283257
     59 H17         -4.5490    -3.3120    -2.7350 h2         1 CB7       0.084986
     60 H18         -5.5600    -3.9770    -1.4460 h2         1 CB7       0.084986
     61 N17         -4.9270    -2.0380    -1.1880 n          1 CB7      -0.492371
     62 C19         -5.5650    -1.7150     0.0510 c3         1 CB7       0.232814
     63 H19         -6.4790    -2.2930     0.1600 h2         1 CB7       0.076986
     64 C20         -5.8190    -0.1910    -0.0640 c3         1 CB7       0.232814
     65 H20         -6.8710     0.0590    -0.1800 h2         1 CB7       0.076986
     66 N18         -5.0910     0.1720    -1.2500 n          1 CB7      -0.492371
     67 C21         -5.2020     1.4560    -1.8900 c3         1 CB7       0.283257
     68 H21         -6.2440     1.7700    -1.8720 h2         1 CB7       0.084986
     69 H22         -4.8810     1.3350    -2.9100 h2         1 CB7       0.084986
     70 N19         -4.4010     2.4960    -1.3030 n          1 CB7      -0.492371
     71 C22         -4.8010     3.2700    -0.1620 c3         1 CB7       0.232814
     72 H23         -5.8240     3.6160    -0.2890 h2         1 CB7       0.076986
     73 C23         -3.7680     4.4260    -0.1320 c3         1 CB7       0.232814
     74 H24         -4.2270     5.4090    -0.1940 h2         1 CB7       0.076986
     75 N20         -2.9660     4.1870    -1.2950 n          1 CB7      -0.492371
     76 C24         -2.0200     5.1230    -1.8370 c3         1 CB7       0.283257
     77 H25         -2.4440     6.1220    -1.7620 h2         1 CB7       0.084986
     78 H26         -1.8710     4.8720    -2.8740 h2         1 CB7       0.084986
     79 N21         -0.7260     5.1160    -1.2060 n          1 CB7      -0.492371
     80 C25         -0.4350     5.8060     0.0210 c3         1 CB7       0.232814
     81 H27         -0.7950     6.8300    -0.0330 h2         1 CB7       0.076986
     82 C26          1.1090     5.7100     0.1220 c3         1 CB7       0.232814
     83 H28          1.5880     6.6750     0.2670 h2         1 CB7       0.076986
     84 N22          1.4900     5.1610    -1.1450 n          1 CB7      -0.492371
     85 C27          2.8390     5.0790    -1.6330 c3         1 CB7       0.283257
     86 H29          3.3500     6.0050    -1.3840 h2         1 CB7       0.084986
     87 H30          2.7890     4.9710    -2.7030 h2         1 CB7       0.084986
     88 N23          3.6160     3.9790    -1.1280 n          1 CB7      -0.492371
     89 C28          4.2590     3.9540     0.1520 c3         1 CB7       0.232814
     90 H31          4.8230     4.8710     0.3010 h2         1 CB7       0.076986
     91 C29          5.1580     2.6930     0.0770 c3         1 CB7       0.232814
     92 H32          6.2200     2.9260     0.0750 h2         1 CB7       0.076986
     93 N24          4.7840     2.0950    -1.1750 n          1 CB7      -0.492371
     94 C30          5.4990     1.0080    -1.7880 c3         1 CB7       0.283257
     95 H33          6.5670     1.1740    -1.6670 h2         1 CB7       0.084986
     96 H34          5.2510     1.0130    -2.8360 h2         1 CB7       0.084986
     97 N25          5.1850    -0.2970    -1.2740 n          1 CB7      -0.492371
     98 C31          5.7530    -0.8650    -0.0890 c3         1 CB7       0.232814
     99 H35          6.8330    -0.7390    -0.0980 h2         1 CB7       0.076986
    100 C32          5.3140    -2.3510    -0.1560 c3         1 CB7       0.232814
    101 H36          6.1460    -3.0350    -0.3040 h2         1 CB7       0.076986
    102 N26          4.4410    -2.3860    -1.2970 n          1 CB7      -0.492371
    103 C33          3.9740    -3.6010    -1.9080 c3         1 CB7       0.283257
    104 H37          4.7880    -4.3250    -1.9120 h2         1 CB7       0.084986
    105 H38          3.6970    -3.3680    -2.9220 h2         1 CB7       0.084986
    106 N27          2.8270    -4.1950    -1.2740 n          1 CB7      -0.492371
    107 C34          2.9080    -5.0380    -0.1130 c3         1 CB7       0.232814
    108 H39          3.6750    -5.7960    -0.2550 h2         1 CB7       0.076986
    109 C35          1.4810    -5.6320    -0.0080 c3         1 CB7       0.232814
    110 H40          1.4730    -6.7170     0.0570 h2         1 CB7       0.076986
    111 N28          0.8570    -5.2110    -1.2260 n          1 CB7      -0.492371
    112 C36         -0.4070    -5.6920    -1.7130 c3         1 CB7       0.283257
    113 H41         -0.4370    -5.5090    -2.7730 h2         1 CB7       0.084986
    114 H42         -0.4580    -6.7620    -1.5270 h2         1 CB7       0.084986
    115 C37          1.6590    -4.3850    -1.9740 c          1 CB7       0.802500
    116 O9           1.4110    -3.9630    -3.0590 o          1 CB7      -0.581500
    117 C38          4.4460    -1.2010    -1.9950 c          1 CB7       0.802500
    118 O10          3.9520    -1.0110    -3.0620 o          1 CB7      -0.581500
    119 C39          3.9620     2.9100    -1.9180 c          1 CB7       0.802500
    120 O11          3.6570     2.7520    -3.0570 o          1 CB7      -0.581500
    121 C40          0.4100     4.8430    -1.9320 c          1 CB7       0.802500
    122 O12          0.4520     4.4610    -3.0580 o          1 CB7      -0.581500
    123 C41         -3.3740     3.0830    -2.0040 c          1 CB7       0.802500
    124 O13         -2.9570     2.7360    -3.0630 o          1 CB7      -0.581500
    125 C42         -4.6680    -0.9290    -1.9560 c          1 CB7       0.802500
    126 O14         -4.2180    -0.9300    -3.0580 o          1 CB7      -0.581500
@<TRIPOS>BOND
     1     1     2 2   
     2     2     3 1   
     3     2    49 1   
     4     3     4 1   
     5     3    56 1   
     6     4     5 1   
     7     4     6 1   
     8     4     7 1   
     9     7     8 1   
    10     7    62 1   
    11     8     9 2   
    12     8    10 1   
    13    10    11 1   
    14    10    64 1   
    15    11    12 1   
    16    11    13 1   
    17    11    14 1   
    18    14    15 1   
    19    14    71 1   
    20    15    16 2   
    21    15    17 1   
    22    17    18 1   
    23    17    73 1   
    24    18    19 1   
    25    18    20 1   
    26    18    21 1   
    27    21    22 1   
    28    21    80 1   
    29    22    23 2   
    30    22    24 1   
    31    24    25 1   
    32    24    82 1   
    33    25    26 1   
    34    25    27 1   
    35    25    28 1   
    36    28    29 1   
    37    28    89 1   
    38    29    30 2   
    39    29    31 1   
    40    31    32 1   
    41    31    91 1   
    42    32    33 1   
    43    32    34 1   
    44    32    35 1   
    45    35    36 1   
    46    35    98 1   
    47    36    37 2   
    48    36    38 1   
    49    38    39 1   
    50    38   100 1   
    51    39    40 1   
    52    39    41 1   
    53    39    42 1   
    54    42    43 1   
    55    42   107 1   
    56    43    44 2   
    57    43    45 1   
    58    45    46 1   
    59    45   109 1   
    60    46    47 1   
    61    46    48 1   
    62    46    49 1   
    63    49    50 1   
    64    50    51 1   
    65    50    52 1   
    66    50    56 1   
    67    52    53 1   
    68    52   112 1   
    69    53    54 2   
    70    53    55 1   
    71    55    56 1   
    72    55    58 1   
    73    56    57 1   
    74    58    59 1   
    75    58    60 1   
    76    58    61 1   
    77    61    62 1   
    78    61   125 1   
    79    62    63 1   
    80    62    64 1   
    81    64    65 1   
    82    64    66 1   
    83    66    67 1   
    84    66   125 1   
    85    67    68 1   
    86    67    69 1   
    87    67    70 1   
    88    70    71 1   
    89    70   123 1   
    90    71    72 1   
    91    71    73 1   
    92    73    74 1   
    93    73    75 1   
    94    75    76 1   
    95    75   123 1   
    96    76    77 1   
    97    76    78 1   
    98    76    79 1   
    99    79    80 1   
   100    79   121 1   
   101    80    81 1   
   102    80    82 1   
   103    82    83 1   
   104    82    84 1   
   105    84    85 1   
   106    84   121 1   
   107    85    86 1   
   108    85    87 1   
   109    85    88 1   
   110    88    89 1   
   111    88   119 1   
   112    89    90 1   
   113    89    91 1   
   114    91    92 1   
   115    91    93 1   
   116    93    94 1   
   117    93   119 1   
   118    94    95 1   
   119    94    96 1   
   120    94    97 1   
   121    97    98 1   
   122    97   117 1   
   123    98    99 1   
   124    98   100 1   
   125   100   101 1   
   126   100   102 1   
   127   102   103 1   
   128   102   117 1   
   129   103   104 1   
   130   103   105 1   
   131   103   106 1   
   132   106   107 1   
   133   106   115 1   
   134   107   108 1   
   135   107   109 1   
   136   109   110 1   
   137   109   111 1   
   138   111   112 1   
   139   111   115 1   
   140   112   113 1   
   141   112   114 1   
   142   115   116 2   
   143   117   118 2   
   144   119   120 2   
   145   121   122 2   
   146   123   124 2   
   147   125   126 2   
@<TRIPOS>SUBSTRUCTURE
     1 CB7         1 TEMP              0 ****  ****    0 ROOT
